16
charge=0=
N 0.00000000 0.00000000 0.00000000
C 1.04538129 0.88957130 -0.12031319
C 2.31472937 0.48576495 0.06194493
H 2.52444584 -0.56816002 0.31386431
C 3.33588037 1.34861295 -0.05767907
C 3.09660625 2.63261866 -0.36480920
C 1.83410954 3.04658534 -0.55185287
C 0.81816343 2.17785245 -0.43051614
H -0.21590063 2.53020395 -0.58787607
H 1.63206937 4.10169995 -0.80596707
H 3.93433041 3.34457871 -0.46433131
H 4.37292040 1.00276550 0.09593934
H 0.25362237 -0.97523305 -0.15372407
H -0.84053529 0.26187282 -0.51376838
