22
charge=0=
C 0.00000000 0.00000000 0.00000000
C -1.29032677 -0.38046660 0.06970185
H -1.89667148 -0.56976943 -0.82533257
C -1.92227053 -0.55390407 1.24181361
C -1.29116267 -0.35419332 2.40957273
H -1.81322540 -0.49759586 3.36711449
C -0.00471462 0.02535756 2.36019295
C 0.61949113 0.19646473 1.18420643
H 1.67789310 0.50972066 1.23068731
H 0.55004029 0.19990230 3.29804565
H -2.98088202 -0.86663455 1.24715516
C 0.70702270 0.19602579 -1.13642036
H 1.75170170 0.50662776 -0.96634635
C 0.35477714 0.07724926 -2.43317383
C 1.27228405 0.33726244 -3.41122177
O 2.41109327 0.67641827 -3.17577598
O 0.98086436 0.23622267 -4.72876597
H 1.81215538 0.47685820 -5.16889396
C -0.83028782 -0.27804423 -2.88657653
N -1.86076161 -0.58741707 -3.31852565
