15
charge=0=
C 0.00000000 0.00000000 0.00000000
N -1.28053790 -0.39126398 -0.10634385
C -2.00703521 -0.44035365 1.02040339
C -1.43740201 -0.10325481 2.18722847
H -2.04359337 -0.14761438 3.10405139
N -0.22946940 0.26379932 2.27363508
C 0.47172709 0.31607877 1.21976732
H 1.51415441 0.64490696 1.37718235
H -3.06416669 -0.75282014 1.00495712
C 0.78938550 0.07061931 -1.10563391
O 1.94609061 0.41995205 -1.03768762
O 0.35921798 -0.23679226 -2.34962847
H 1.14558015 -0.08604531 -2.89900341
