9
charge=0=
C 0.00000000 0.00000000 0.00000000
C -1.30523076 0.26593335 -0.11027223
C -1.99444246 -0.84766688 0.16779680
S -1.13139623 -1.98711283 0.49912541
C 0.14773027 -1.28412240 0.34877794
H 1.12185641 -1.77412470 0.50925764
H -3.09444976 -0.91507628 0.15304364
H -1.74138504 1.24133597 -0.38486766
H 0.81895758 0.71968071 -0.16855750
