42
charge=0=
C 0.00000000 0.00000000 0.00000000
O 0.75806900 1.19020400 0.10737400
C 1.63705800 1.51132200 -0.90110400
C 1.84471200 0.78531700 -2.01741400
C 2.71042400 1.17153700 -2.96699800
C 3.43495200 2.30219500 -2.86269200
C 3.24564800 3.02014700 -1.73915200
C 2.37295900 2.63337600 -0.79635200
H 2.24929400 3.26218200 0.10282000
H 3.80385900 3.95970400 -1.58086500
N 4.33749400 2.71573500 -3.84025400
C 4.02392500 2.47980800 -5.17909800
C 4.92349500 2.04493600 -6.08724000
C 4.58826600 1.81084500 -7.36575600
C 3.32865000 2.00760800 -7.78000400
C 2.41604100 2.44931800 -6.90318300
C 2.76699500 2.67696100 -5.62757900
H 1.98597200 3.04764800 -4.94126400
H 1.37650800 2.62387300 -7.23219000
H 3.05040049 1.81115430 -8.81541848
H 5.34648300 1.44578800 -8.07929000
H 5.96715600 1.84580400 -5.79197600
C 5.63089600 3.06314900 -3.45675400
C 6.38691700 3.91479200 -4.17722000
C 7.63189900 4.25082700 -3.80244600
C 8.21380100 3.73834700 -2.70204400
C 7.43412900 2.93989200 -1.94785200
C 6.19488200 2.59571600 -2.32456800
H 5.64453700 1.89996400 -1.67034900
H 7.82542500 2.54164400 -0.99633400
O 9.48399300 4.14451100 -2.31898500
C 10.2274700 2.95423000 -2.64909700
H 11.3208500 3.15074700 -2.50828700
H 9.95971700 2.07639000 -2.00648100
H 10.1035400 2.69992500 -3.72986300
H 8.20368900 4.96963000 -4.41519000
H 5.98204500 4.37671300 -5.09444100
H 2.83404700 0.51953800 -3.84921900
H 1.30450300 -0.15963800 -2.18841000
H 0.67319500 -0.88912400 0.03874700
H -0.69013700 -0.04220500 0.87468300
H -0.62168500 0.01265900 -0.92689400
