36
charge=0=
N 0.00000000 0.00000000 0.00000000
C 0.71190601 1.19219004 -0.14445028
C 1.80377201 1.29492304 -0.93126928
C 2.48236701 2.44538904 -1.06397628
C 2.08449201 3.54059404 -0.40206128
C 1.00742401 3.46654404 0.39232972
C 0.33966801 2.30878604 0.51488872
H -0.53034499 2.28731004 1.19366972
H 0.67371501 4.35932304 0.94962572
H  2.63751901 4.49046804 -0.50751028
H 3.36686701 2.49313104 -1.72314028
H 2.15875501 0.42420004 -1.50837428
C 0.67049509 -1.22265698 -0.06737508
C 1.88149861 -1.38422018 0.50485169
C 2.54583598 -2.54927132 0.45352865
C 2.00832819 -3.60244127 -0.17776713
C 0.80304642 -3.47386711 -0.74932160
C 0.15128135 -2.30197882 -0.68970219
H -0.83061507 -2.23878820 -1.18880942
H 0.34968718 -4.33300269 -1.27417222
H  2.55039008 -4.56330201 -0.22396802
H 3.53457999 -2.64400252 0.93561386
H 2.35232187 -0.54838791 1.05059647
C -1.39457589 0.02579921 0.05903929
C -2.07580602 -0.86883565 0.80444498
C -3.41596338 -0.86463418 0.87712899
C -4.12314832 0.05021965 0.19922939
C -3.47324836 0.95646350 -0.54391402
C -2.13256803 0.93899793 -0.60672741
H -1.64221725 1.69417317 -1.24429161
H -4.04375330 1.71442585 -1.10883340
H  -5.22591748 0.05826182 0.25449652
H -3.93857472 -1.61191170 1.49958265
H -1.53213205 -1.62779770 1.39310678
